<?xml version="1.0" encoding="UTF-8"?>

<net version="1.1" junctionCornerDetail="5" limitTurnSpeed="5.50" xmlns:xsi="http://www.w3.org/2001/XMLSchema-instance" xsi:noNamespaceSchemaLocation="http://sumo.dlr.de/xsd/net_file.xsd">

    <location netOffset="-691209.67,2535218.02" convBoundary="875.51,1043.07,1824.87,1677.89" origBoundary="-43.171474,-22.913761,-43.109244,-22.890045" projParameter="+proj=utm +zone=23 +ellps=WGS84 +datum=WGS84 +units=m +no_defs"/>

    <type id="highway.bridleway" priority="1" numLanes="1" speed="2.78" allow="pedestrian" oneway="1" width="2.00"/>
    <type id="highway.bus_guideway" priority="1" numLanes="1" speed="27.78" allow="bus" oneway="1"/>
    <type id="highway.cycleway" priority="1" numLanes="1" speed="8.33" allow="bicycle" oneway="0" width="1.00"/>
    <type id="highway.footway" priority="1" numLanes="1" speed="2.78" allow="pedestrian" oneway="1" width="2.00"/>
    <type id="highway.ford" priority="1" numLanes="1" speed="2.78" allow="army" oneway="0"/>
    <type id="highway.living_street" priority="2" numLanes="1" speed="2.78" disallow="tram rail_urban rail rail_electric ship" oneway="0"/>
    <type id="highway.motorway" priority="14" numLanes="2" speed="39.44" allow="private emergency authority army vip passenger hov taxi bus coach delivery truck trailer motorcycle evehicle custom1 custom2" oneway="1"/>
    <type id="highway.motorway_link" priority="9" numLanes="1" speed="22.22" allow="private emergency authority army vip passenger hov taxi bus coach delivery truck trailer motorcycle evehicle custom1 custom2" oneway="1"/>
    <type id="highway.path" priority="1" numLanes="1" speed="2.78" allow="bicycle pedestrian" oneway="1" width="2.00"/>
    <type id="highway.pedestrian" priority="1" numLanes="1" speed="2.78" allow="pedestrian" oneway="1" width="2.00"/>
    <type id="highway.primary" priority="12" numLanes="2" speed="27.78" disallow="tram rail_urban rail rail_electric ship" oneway="0"/>
    <type id="highway.primary_link" priority="7" numLanes="1" speed="22.22" disallow="tram rail_urban rail rail_electric ship" oneway="0"/>
    <type id="highway.raceway" priority="15" numLanes="2" speed="83.33" allow="vip" oneway="0"/>
    <type id="highway.residential" priority="3" numLanes="1" speed="13.89" disallow="tram rail_urban rail rail_electric ship" oneway="0"/>
    <type id="highway.secondary" priority="11" numLanes="2" speed="27.78" disallow="tram rail_urban rail rail_electric ship" oneway="0"/>
    <type id="highway.secondary_link" priority="6" numLanes="1" speed="22.22" disallow="tram rail_urban rail rail_electric ship" oneway="0"/>
    <type id="highway.service" priority="1" numLanes="1" speed="5.56" allow="delivery bicycle pedestrian" oneway="0"/>
    <type id="highway.stairs" priority="1" numLanes="1" speed="1.39" allow="pedestrian" oneway="1" width="2.00"/>
    <type id="highway.step" priority="1" numLanes="1" speed="1.39" allow="pedestrian" oneway="1" width="2.00"/>
    <type id="highway.steps" priority="1" numLanes="1" speed="1.39" allow="pedestrian" oneway="1" width="2.00"/>
    <type id="highway.tertiary" priority="10" numLanes="1" speed="22.22" disallow="tram rail_urban rail rail_electric ship" oneway="0"/>
    <type id="highway.tertiary_link" priority="5" numLanes="1" speed="22.22" disallow="tram rail_urban rail rail_electric ship" oneway="0"/>
    <type id="highway.track" priority="1" numLanes="1" speed="5.56" disallow="tram rail_urban rail rail_electric ship" oneway="0"/>
    <type id="highway.trunk" priority="13" numLanes="2" speed="27.78" disallow="tram rail_urban rail rail_electric bicycle pedestrian ship" oneway="0"/>
    <type id="highway.trunk_link" priority="8" numLanes="1" speed="22.22" disallow="tram rail_urban rail rail_electric bicycle pedestrian ship" oneway="0"/>
    <type id="highway.unclassified" priority="4" numLanes="1" speed="13.89" disallow="tram rail_urban rail rail_electric ship" oneway="0"/>
    <type id="highway.unsurfaced" priority="1" numLanes="1" speed="8.33" disallow="tram rail_urban rail rail_electric ship" oneway="0"/>
    <type id="railway.light_rail" priority="19" numLanes="1" speed="27.78" allow="rail_urban" oneway="1"/>
    <type id="railway.preserved" priority="16" numLanes="1" speed="27.78" allow="rail" oneway="1"/>
    <type id="railway.rail" priority="20" numLanes="1" speed="83.33" allow="rail rail_electric" oneway="1"/>
    <type id="railway.subway" priority="18" numLanes="1" speed="27.78" allow="rail_urban" oneway="1"/>
    <type id="railway.tram" priority="17" numLanes="1" speed="13.89" allow="tram" oneway="1"/>

    <edge id=":Paulo_Alves__Fagundes_Varela_0" function="internal">
        <lane id=":Paulo_Alves__Fagundes_Varela_0_0" index="0" disallow="tram rail_urban rail rail_electric pedestrian ship" speed="8.81" length="19.06" shape="1441.99,1378.98 1436.87,1377.99 1432.83,1379.03 1429.87,1382.09 1428.00,1387.17"/>
    </edge>
    <edge id=":Paulo_Alves__Fagundes_Varela_1" function="internal">
        <lane id=":Paulo_Alves__Fagundes_Varela_1_0" index="0" disallow="tram rail_urban rail rail_electric pedestrian ship" speed="9.41" length="21.92" shape="1441.99,1378.98 1435.53,1377.55 1430.52,1378.33 1426.97,1381.31 1424.87,1386.49"/>
    </edge>
    <edge id=":Paulo_Alves__Fagundes_Varela_2" function="internal">
        <lane id=":Paulo_Alves__Fagundes_Varela_2_0" index="0" disallow="tram rail_urban rail rail_electric pedestrian ship" speed="16.67" length="27.97" shape="1441.99,1378.98 1437.16,1377.64 1430.37,1376.37 1422.60,1375.54 1414.80,1375.54"/>
        <lane id=":Paulo_Alves__Fagundes_Varela_2_1" index="1" disallow="tram rail_urban rail rail_electric pedestrian ship" speed="16.67" length="27.97" shape="1441.99,1378.98 1437.12,1377.14 1430.26,1374.77 1422.40,1372.85 1414.57,1372.35"/>
    </edge>
    <edge id=":Paulo_Alves__Fagundes_Varela_4" function="internal">
        <lane id=":Paulo_Alves__Fagundes_Varela_4_0" index="0" disallow="tram rail_urban rail rail_electric pedestrian ship" speed="11.68" length="17.33" shape="1431.60,1359.42 1432.71,1365.28 1434.98,1369.99 1438.44,1373.55 1439.47,1374.09"/>
    </edge>
    <edge id=":Paulo_Alves__Fagundes_Varela_5" function="internal">
        <lane id=":Paulo_Alves__Fagundes_Varela_5_0" index="0" disallow="tram rail_urban rail rail_electric pedestrian ship" speed="16.67" length="27.16" shape="1428.41,1359.68 1429.11,1368.38 1429.42,1374.90 1429.12,1380.68 1428.00,1387.17"/>
        <lane id=":Paulo_Alves__Fagundes_Varela_5_1" index="1" disallow="tram rail_urban rail rail_electric pedestrian ship" speed="16.67" length="27.16" shape="1425.22,1359.94 1425.92,1368.30 1426.25,1374.51 1425.98,1380.08 1424.87,1386.49"/>
    </edge>
    <edge id=":Paulo_Alves__Fagundes_Varela_7" function="internal">
        <lane id=":Paulo_Alves__Fagundes_Varela_7_0" index="0" disallow="tram rail_urban rail rail_electric pedestrian ship" speed="9.67" length="21.34" shape="1425.22,1359.94 1425.02,1366.45 1423.21,1371.22 1419.81,1374.25 1414.80,1375.54"/>
    </edge>
    <edge id=":Paulo_Alves__Fagundes_Varela_8" function="internal">
        <lane id=":Paulo_Alves__Fagundes_Varela_8_0" index="0" disallow="tram rail_urban rail rail_electric pedestrian ship" speed="9.08" length="18.68" shape="1425.22,1359.94 1424.91,1365.06 1423.03,1368.83 1419.58,1371.26 1414.57,1372.35"/>
    </edge>
    <edge id=":Paulo_Alves__Fagundes_Varela_9" function="internal">
        <lane id=":Paulo_Alves__Fagundes_Varela_9_0" index="0" disallow="tram rail_urban rail rail_electric pedestrian ship" speed="11.68" length="4.04" shape="1439.47,1374.09 1443.06,1375.96"/>
    </edge>
    <edge id=":Paulo_Alves__Fagundes_Varela_c0" function="crossing" crossingEdges="Fagundes_Varela#1 Fagundes_Varela#-1">
        <lane id=":Paulo_Alves__Fagundes_Varela_c0_0" index="0" allow="pedestrian" speed="1.00" length="6.40" width="4.00" shape="1441.70,1373.79 1439.58,1379.82"/>
    </edge>
    <edge id=":Paulo_Alves__Fagundes_Varela_c1" function="crossing" crossingEdges="Paulo_Alves#5">
        <lane id=":Paulo_Alves__Fagundes_Varela_c1_0" index="0" allow="pedestrian" speed="1.00" length="9.60" width="4.00" shape="1423.78,1362.06 1433.35,1361.28"/>
    </edge>
    <edge id=":Paulo_Alves__Fagundes_Varela_w0" function="walkingarea">
        <lane id=":Paulo_Alves__Fagundes_Varela_w0_0" index="0" allow="pedestrian" speed="1.00" length="23.77" width="4.00" shape="1437.69,1379.16 1441.46,1380.49 1423.62,1360.07 1423.95,1364.06"/>
    </edge>
    <edge id=":Paulo_Alves__Fagundes_Varela_w1" function="walkingarea">
        <lane id=":Paulo_Alves__Fagundes_Varela_w1_0" index="0" allow="pedestrian" speed="1.00" length="15.03" width="4.00" shape="1433.52,1363.28 1433.19,1359.29 1443.59,1374.45 1439.81,1373.12"/>
    </edge>
    <edge id=":Presidente_Pedreira__Nilo_Pecanha_0" function="internal">
        <lane id=":Presidente_Pedreira__Nilo_Pecanha_0_0" index="0" disallow="tram rail_urban rail rail_electric pedestrian ship" speed="16.67" length="15.29" shape="1179.81,1141.44 1194.96,1139.11"/>
        <lane id=":Presidente_Pedreira__Nilo_Pecanha_0_1" index="1" disallow="tram rail_urban rail rail_electric pedestrian ship" speed="16.67" length="15.29" shape="1180.34,1144.59 1195.40,1142.28"/>
    </edge>
    <edge id=":Presidente_Pedreira__Nilo_Pecanha_2" function="internal">
        <lane id=":Presidente_Pedreira__Nilo_Pecanha_2_0" index="0" disallow="tram rail_urban rail rail_electric pedestrian ship" speed="7.41" length="12.24" shape="1180.34,1144.59 1183.70,1144.51 1186.26,1145.54 1188.01,1147.66 1188.96,1150.89"/>
    </edge>
    <edge id=":Presidente_Pedreira__Nilo_Pecanha_c0" function="crossing" crossingEdges="Presidente_Pedreira#4">
        <lane id=":Presidente_Pedreira__Nilo_Pecanha_c0_0" index="0" allow="pedestrian" speed="1.00" length="6.40" width="4.00" shape="1192.76,1137.81 1193.64,1144.14"/>
    </edge>
    <edge id=":Presidente_Pedreira__Nilo_Pecanha_c1" function="crossing" crossingEdges="Presidente_Pedreira#3">
        <lane id=":Presidente_Pedreira__Nilo_Pecanha_c1_0" index="0" allow="pedestrian" speed="1.00" length="6.40" width="4.00" shape="1182.57,1145.84 1181.52,1139.53"/>
    </edge>
    <edge id=":Presidente_Pedreira__Nilo_Pecanha_w0" function="walkingarea">
        <lane id=":Presidente_Pedreira__Nilo_Pecanha_w0_0" index="0" allow="pedestrian" speed="1.00" length="11.20" width="4.00" shape="1191.66,1144.42 1195.63,1143.87 1180.60,1146.17 1184.55,1145.51"/>
    </edge>
    <edge id=":Presidente_Pedreira__Nilo_Pecanha_w1" function="walkingarea">
        <lane id=":Presidente_Pedreira__Nilo_Pecanha_w1_0" index="0" allow="pedestrian" speed="1.00" length="11.37" width="4.00" shape="1183.49,1139.20 1179.55,1139.86 1194.74,1137.53 1190.78,1138.08"/>
    </edge>
    <edge id=":Presidente_Pedreira__Paulo_Alves#1_0" function="internal">
        <lane id=":Presidente_Pedreira__Paulo_Alves#1_0_0" index="0" speed="8.94" length="6.80" shape="1372.67,1113.76 1375.40,1113.03 1377.67,1111.70 1378.59,1110.72"/>
    </edge>
    <edge id=":Presidente_Pedreira__Paulo_Alves#1_1" function="internal">
        <lane id=":Presidente_Pedreira__Paulo_Alves#1_1_0" index="0" speed="9.25" length="8.51" shape="1373.13,1116.92 1377.05,1116.67 1380.30,1117.15 1381.47,1117.71"/>
    </edge>
    <edge id=":Presidente_Pedreira__Paulo_Alves#1_2" function="internal">
        <lane id=":Presidente_Pedreira__Paulo_Alves#1_2_0" index="0" speed="8.94" length="4.11" shape="1378.59,1110.72 1379.46,1109.78 1380.78,1107.27"/>
    </edge>
    <edge id=":Presidente_Pedreira__Paulo_Alves#1_3" function="internal">
        <lane id=":Presidente_Pedreira__Paulo_Alves#1_3_0" index="0" speed="9.25" length="4.26" shape="1381.47,1117.71 1382.86,1118.37 1384.76,1120.33"/>
    </edge>
    <edge id=":Presidente_Pedreira__Paulo_Alves#1_c0" function="crossing" crossingEdges="Presidente_Pedreira#6L">
        <lane id=":Presidente_Pedreira__Paulo_Alves#1_c0_0" index="0" allow="pedestrian" speed="1.00" length="3.20" width="4.00" shape="1384.98,1117.78 1382.32,1119.56"/>
    </edge>
    <edge id=":Presidente_Pedreira__Paulo_Alves#1_c1" function="crossing" crossingEdges="Presidente_Pedreira#6R">
        <lane id=":Presidente_Pedreira__Paulo_Alves#1_c1_0" index="0" allow="pedestrian" speed="1.00" length="3.20" width="4.00" shape="1378.56,1108.56 1381.55,1109.71"/>
    </edge>
    <edge id=":Presidente_Pedreira__Paulo_Alves#1_w0" function="walkingarea">
        <lane id=":Presidente_Pedreira__Paulo_Alves#1_w0_0" index="0" allow="pedestrian" speed="1.00" length="13.65" width="3.20" shape="1383.43,1121.22 1386.09,1119.44 1382.27,1107.85 1379.28,1106.70"/>
    </edge>
    <edge id=":Presidente_Pedreira__Paulo_Alves#1_w1" function="walkingarea">
        <lane id=":Presidente_Pedreira__Paulo_Alves#1_w1_0" index="0" allow="pedestrian" speed="1.00" length="11.62" width="4.00" shape="1381.20,1117.89 1383.43,1121.22 1379.28,1106.70 1377.85,1110.43"/>
    </edge>
    <edge id=":Presidente_Pedreira__Paulo_Alves#1_w2" function="walkingarea">
        <lane id=":Presidente_Pedreira__Paulo_Alves#1_w2_0" index="0" allow="pedestrian" speed="1.00" length="8.76" width="4.00" shape="1380.83,1111.58 1382.27,1107.85 1386.09,1119.44 1383.86,1116.12"/>
    </edge>
    <edge id=":Presidente_Pedreira__Paulo_Alves#2_0" function="internal">
        <lane id=":Presidente_Pedreira__Paulo_Alves#2_0_0" index="0" speed="16.67" length="0.20" shape="1391.07,1110.26 1391.08,1110.36"/>
        <lane id=":Presidente_Pedreira__Paulo_Alves#2_0_1" index="1" speed="16.67" length="0.20" shape="1387.89,1110.62 1387.93,1110.92"/>
    </edge>
    <edge id=":Presidente_Pedreira__Paulo_Alves#2_c0" function="crossing" crossingEdges="Paulo_Alves#2">
        <lane id=":Presidente_Pedreira__Paulo_Alves#2_c0_0" index="0" allow="pedestrian" speed="1.00" length="6.40" width="4.00" shape="1386.52,1112.79 1392.88,1112.07"/>
    </edge>
    <edge id=":Presidente_Pedreira__Paulo_Alves#2_w0" function="walkingarea">
        <lane id=":Presidente_Pedreira__Paulo_Alves#2_w0_0" index="0" allow="pedestrian" speed="1.00" length="4.68" width="4.00" shape="1386.74,1114.77 1386.30,1110.80 1386.36,1111.20 1389.51,1110.64 1389.51,1110.64 1392.66,1110.09 1393.10,1114.06"/>
    </edge>
    <edge id=":Presidente_Pedreira__Pereira_Nunes_0" function="internal">
        <lane id=":Presidente_Pedreira__Pereira_Nunes_0_0" index="0" disallow="tram rail_urban rail rail_electric pedestrian ship" speed="7.61" length="12.37" shape="1290.48,1136.76 1290.58,1133.37 1291.72,1130.79 1293.89,1129.02 1297.11,1128.07"/>
    </edge>
    <edge id=":Presidente_Pedreira__Pereira_Nunes_1" function="internal">
        <lane id=":Presidente_Pedreira__Pereira_Nunes_1_0" index="0" disallow="tram rail_urban rail rail_electric pedestrian ship" speed="16.67" length="15.18" shape="1281.63,1127.05 1296.64,1124.90"/>
        <lane id=":Presidente_Pedreira__Pereira_Nunes_1_1" index="1" disallow="tram rail_urban rail rail_electric pedestrian ship" speed="16.67" length="15.18" shape="1282.07,1130.22 1297.11,1128.07"/>
    </edge>
    <edge id=":Presidente_Pedreira__Pereira_Nunes_c0" function="crossing" crossingEdges="Pereira_Nunes#1">
        <lane id=":Presidente_Pedreira__Pereira_Nunes_c0_0" index="0" allow="pedestrian" speed="1.00" length="3.20" width="4.00" shape="1291.85,1134.60 1288.67,1134.95"/>
    </edge>
    <edge id=":Presidente_Pedreira__Pereira_Nunes_c1" function="crossing" crossingEdges="Presidente_Pedreira#4">
        <lane id=":Presidente_Pedreira__Pereira_Nunes_c1_0" index="0" allow="pedestrian" speed="1.00" length="6.40" width="4.00" shape="1284.27,1131.52 1283.39,1125.19"/>
    </edge>
    <edge id=":Presidente_Pedreira__Pereira_Nunes_w0" function="walkingarea">
        <lane id=":Presidente_Pedreira__Pereira_Nunes_w0_0" index="0" allow="pedestrian" speed="1.00" length="5.57" width="4.00" shape="1288.45,1132.96 1288.89,1136.94 1282.29,1131.80 1286.25,1131.25"/>
    </edge>
    <edge id=":Presidente_Pedreira__Pereira_Nunes_w1" function="walkingarea">
        <lane id=":Presidente_Pedreira__Pereira_Nunes_w1_0" index="0" allow="pedestrian" speed="1.00" length="12.66" width="4.00" shape="1285.37,1124.91 1281.41,1125.46 1292.07,1136.59 1291.63,1132.61"/>
    </edge>
    <edge id=":Tiradentes__Nilo_Pecanha_0" function="internal">
        <lane id=":Tiradentes__Nilo_Pecanha_0_0" index="0" disallow="tram rail_urban rail rail_electric pedestrian ship" speed="16.67" length="15.25" shape="1230.72,1389.02 1215.48,1390.05"/>
        <lane id=":Tiradentes__Nilo_Pecanha_0_1" index="1" disallow="tram rail_urban rail rail_electric pedestrian ship" speed="16.67" length="15.25" shape="1230.48,1385.83 1215.29,1386.86"/>
    </edge>
    <edge id=":Tiradentes__Nilo_Pecanha_2" function="internal">
        <lane id=":Tiradentes__Nilo_Pecanha_2_0" index="0" disallow="tram rail_urban rail rail_electric pedestrian ship" speed="7.25" length="12.19" shape="1221.90,1378.72 1221.90,1382.10 1220.80,1384.59 1218.60,1386.17 1215.29,1386.86"/>
    </edge>
    <edge id=":Tiradentes__Nilo_Pecanha_c0" function="crossing" crossingEdges="Tiradentes#2">
        <lane id=":Tiradentes__Nilo_Pecanha_c0_0" index="0" allow="pedestrian" speed="1.00" length="6.40" width="4.00" shape="1228.37,1384.38 1228.84,1390.76"/>
    </edge>
    <edge id=":Tiradentes__Nilo_Pecanha_c1" function="crossing" crossingEdges="Nilo_Pecanha#1">
        <lane id=":Tiradentes__Nilo_Pecanha_c1_0" index="0" allow="pedestrian" speed="1.00" length="3.20" width="4.00" shape="1220.61,1380.93 1223.77,1380.47"/>
    </edge>
    <edge id=":Tiradentes__Nilo_Pecanha_w0" function="walkingarea">
        <lane id=":Tiradentes__Nilo_Pecanha_w0_0" index="0" allow="pedestrian" speed="1.00" length="12.83" width="4.00" shape="1226.85,1390.91 1230.84,1390.61 1220.32,1378.95 1220.89,1382.91"/>
    </edge>
    <edge id=":Tiradentes__Nilo_Pecanha_w1" function="walkingarea">
        <lane id=":Tiradentes__Nilo_Pecanha_w1_0" index="0" allow="pedestrian" speed="1.00" length="6.03" width="4.00" shape="1224.06,1382.45 1223.49,1378.49 1230.36,1384.23 1226.37,1384.53"/>
    </edge>
    <edge id=":Tiradentes__Pereira_Nunes_0" function="internal">
        <lane id=":Tiradentes__Pereira_Nunes_0_0" index="0" disallow="tram rail_urban rail rail_electric pedestrian ship" speed="16.67" length="15.19" shape="1324.78,1382.04 1309.63,1383.15"/>
        <lane id=":Tiradentes__Pereira_Nunes_0_1" index="1" disallow="tram rail_urban rail rail_electric pedestrian ship" speed="16.67" length="15.19" shape="1324.55,1378.85 1309.39,1379.96"/>
    </edge>
    <edge id=":Tiradentes__Pereira_Nunes_2" function="internal">
        <lane id=":Tiradentes__Pereira_Nunes_2_0" index="0" disallow="tram rail_urban rail rail_electric pedestrian ship" speed="7.61" length="12.38" shape="1324.55,1378.85 1321.21,1378.61 1318.70,1377.35 1317.03,1375.07 1316.19,1371.78"/>
    </edge>
    <edge id=":Tiradentes__Pereira_Nunes_c0" function="crossing" crossingEdges="Tiradentes#1">
        <lane id=":Tiradentes__Pereira_Nunes_c0_0" index="0" allow="pedestrian" speed="1.00" length="6.40" width="4.00" shape="1322.44,1377.39 1322.90,1383.78"/>
    </edge>
    <edge id=":Tiradentes__Pereira_Nunes_c1" function="crossing" crossingEdges="Tiradentes#2">
        <lane id=":Tiradentes__Pereira_Nunes_c1_0" index="0" allow="pedestrian" speed="1.00" length="6.40" width="4.00" shape="1311.74,1384.59 1311.27,1378.21"/>
    </edge>
    <edge id=":Tiradentes__Pereira_Nunes_w0" function="walkingarea">
        <lane id=":Tiradentes__Pereira_Nunes_w0_0" index="0" allow="pedestrian" speed="1.00" length="11.19" width="4.00" shape="1320.90,1383.92 1324.89,1383.63 1309.75,1384.74 1313.74,1384.45"/>
    </edge>
    <edge id=":Tiradentes__Pereira_Nunes_w1" function="walkingarea">
        <lane id=":Tiradentes__Pereira_Nunes_w1_0" index="0" allow="pedestrian" speed="1.00" length="11.20" width="4.00" shape="1313.26,1378.06 1309.27,1378.36 1324.43,1377.25 1320.44,1377.54"/>
    </edge>
    <edge id=":Tiradentes__Visconde_de_Morais_0" function="internal">
        <lane id=":Tiradentes__Visconde_de_Morais_0_0" index="0" disallow="tram rail_urban rail rail_electric pedestrian ship" speed="16.67" length="30.03" shape="1084.37,1378.11 1077.84,1374.38 1071.46,1370.37 1064.98,1366.61 1058.14,1363.63"/>
        <lane id=":Tiradentes__Visconde_de_Morais_0_1" index="1" disallow="tram rail_urban rail rail_electric pedestrian ship" speed="16.67" length="30.03" shape="1085.82,1375.26 1079.07,1371.98 1072.19,1368.95 1065.20,1366.17 1058.14,1363.63"/>
    </edge>
    <edge id=":Tiradentes__Visconde_de_Morais_2" function="internal">
        <lane id=":Tiradentes__Visconde_de_Morais_2_0" index="0" disallow="tram rail_urban rail rail_electric pedestrian ship" speed="14.91" length="26.27" shape="1085.82,1375.26 1080.34,1371.64 1076.06,1367.00 1072.98,1361.34 1071.11,1354.66"/>
    </edge>
    <edge id=":Tiradentes__Visconde_de_Morais_3" function="internal">
        <lane id=":Tiradentes__Visconde_de_Morais_3_0" index="0" disallow="tram rail_urban rail rail_electric pedestrian ship" speed="11.32" length="25.30" shape="1068.54,1384.19 1068.78,1376.83 1067.12,1370.94 1063.58,1366.55 1058.14,1363.63"/>
    </edge>
    <edge id=":Tiradentes__Visconde_de_Morais_4" function="internal">
        <lane id=":Tiradentes__Visconde_de_Morais_4_0" index="0" disallow="tram rail_urban rail rail_electric pedestrian ship" speed="16.67" length="29.62" shape="1068.54,1384.19 1069.30,1376.88 1069.44,1369.69 1068.99,1362.50 1067.96,1355.21"/>
        <lane id=":Tiradentes__Visconde_de_Morais_4_1" index="1" disallow="tram rail_urban rail rail_electric pedestrian ship" speed="16.67" length="29.62" shape="1071.71,1384.66 1072.47,1377.18 1072.60,1369.64 1072.14,1362.11 1071.11,1354.66"/>
    </edge>
    <edge id=":Tiradentes__Visconde_de_Morais_c0" function="crossing" crossingEdges="Tiradentes#3">
        <lane id=":Tiradentes__Visconde_de_Morais_c0_0" index="0" allow="pedestrian" speed="1.00" length="6.40" width="4.00" shape="1084.77,1372.92 1081.86,1378.63"/>
    </edge>
    <edge id=":Tiradentes__Visconde_de_Morais_c1" function="crossing" crossingEdges="Visconde_de_Morais#1">
        <lane id=":Tiradentes__Visconde_de_Morais_c1_0" index="0" allow="pedestrian" speed="1.00" length="6.40" width="4.00" shape="1073.58,1382.91 1067.25,1381.98"/>
    </edge>
    <edge id=":Tiradentes__Visconde_de_Morais_w0" function="walkingarea">
        <lane id=":Tiradentes__Visconde_de_Morais_w0_0" index="0" allow="pedestrian" speed="1.00" length="9.32" width="4.00" shape="1080.08,1377.72 1083.64,1379.53 1073.29,1384.89 1073.87,1380.93"/>
    </edge>
    <edge id=":Tiradentes__Visconde_de_Morais_w1" function="walkingarea">
        <lane id=":Tiradentes__Visconde_de_Morais_w1_0" index="0" allow="pedestrian" speed="1.00" length="19.72" width="4.00" shape="1067.54,1380.01 1066.96,1383.96 1086.55,1373.83 1082.99,1372.02"/>
    </edge>
    <edge id=":Visconde_de_Morais__Presidente_Pedreira_0" function="internal">
        <lane id=":Visconde_de_Morais__Presidente_Pedreira_0_0" index="0" disallow="tram rail_urban rail rail_electric pedestrian ship" speed="16.67" length="15.57" shape="1030.67,1166.37 1046.03,1163.80"/>
    </edge>
    <edge id=":Visconde_de_Morais__Presidente_Pedreira_1" function="internal">
        <lane id=":Visconde_de_Morais__Presidente_Pedreira_1_0" index="0" disallow="tram rail_urban rail rail_electric pedestrian ship" speed="8.83" length="14.42" shape="1036.57,1173.04 1037.35,1169.56 1039.19,1166.86 1042.08,1164.94 1046.03,1163.80"/>
    </edge>
    <edge id=":Visconde_de_Morais__Presidente_Pedreira_2" function="internal">
        <lane id=":Visconde_de_Morais__Presidente_Pedreira_2_0" index="0" disallow="tram rail_urban rail rail_electric pedestrian ship" speed="8.25" length="12.48" shape="1036.57,1173.04 1037.30,1170.99 1039.21,1169.29 1042.30,1167.94 1046.56,1166.96"/>
    </edge>
    <edge id=":Visconde_de_Morais__Presidente_Pedreira_3" function="internal">
        <lane id=":Visconde_de_Morais__Presidente_Pedreira_3_0" index="0" disallow="tram rail_urban rail rail_electric pedestrian ship" speed="7.40" length="10.78" shape="1039.72,1173.88 1040.08,1171.29 1041.34,1169.27 1043.50,1167.83 1046.56,1166.96"/>
    </edge>
    <edge id=":Visconde_de_Morais__Presidente_Pedreira_c0" function="crossing" crossingEdges="Presidente_Pedreira#2">
        <lane id=":Visconde_de_Morais__Presidente_Pedreira_c0_0" index="0" allow="pedestrian" speed="1.00" length="3.20" width="4.00" shape="1032.91,1167.61 1032.38,1164.46"/>
    </edge>
    <edge id=":Visconde_de_Morais__Presidente_Pedreira_c1" function="crossing" crossingEdges="Visconde_de_Morais#2">
        <lane id=":Visconde_de_Morais__Presidente_Pedreira_c1_0" index="0" allow="pedestrian" speed="1.00" length="6.23" width="4.00" shape="1041.26,1171.83 1035.09,1170.94"/>
    </edge>
    <edge id=":Visconde_de_Morais__Presidente_Pedreira_w0" function="walkingarea">
        <lane id=":Visconde_de_Morais__Presidente_Pedreira_w0_0" index="0" allow="pedestrian" speed="1.00" length="11.54" width="4.00" shape="1034.35,1164.13 1030.41,1164.79 1040.97,1173.81 1041.54,1169.85"/>
    </edge>
    <edge id=":Visconde_de_Morais__Presidente_Pedreira_w1" function="walkingarea">
        <lane id=":Visconde_de_Morais__Presidente_Pedreira_w1_0" index="0" allow="pedestrian" speed="1.00" length="3.98" width="4.00" shape="1035.38,1168.96 1034.81,1172.92 1030.94,1167.94 1034.88,1167.28"/>
    </edge>
    <edge id=":cluster_1346338586_gneJ20_0" function="internal">
        <lane id=":cluster_1346338586_gneJ20_0_0" index="0" disallow="tram rail_urban rail rail_electric pedestrian ship" speed="16.67" length="8.16" shape="1407.59,1203.65 1408.37,1205.98 1409.44,1207.41 1410.48,1208.85 1411.21,1211.19"/>
        <lane id=":cluster_1346338586_gneJ20_0_1" index="1" disallow="tram rail_urban rail rail_electric pedestrian ship" speed="16.67" length="8.16" shape="1407.59,1203.65 1407.87,1206.01 1407.85,1207.65 1407.82,1209.30 1408.04,1211.67"/>
        <lane id=":cluster_1346338586_gneJ20_0_2" index="2" disallow="tram rail_urban rail rail_electric pedestrian ship" speed="16.67" length="8.16" shape="1404.44,1204.21 1404.72,1206.55 1404.70,1208.17 1404.66,1209.80 1404.88,1212.14"/>
    </edge>
    <edge id=":cluster_1346338586_gneJ20_w0" function="walkingarea">
        <lane id=":cluster_1346338586_gneJ20_w0_0" index="0" allow="pedestrian" speed="1.00" length="0.10" width="3.20" shape="1409.17,1203.37 1406.01,1203.93 1406.01,1203.93 1402.86,1204.49"/>
    </edge>
    <edge id=":gneJ16_0" function="internal">
        <lane id=":gneJ16_0_0" index="0" disallow="tram rail_urban rail rail_electric pedestrian" speed="16.67" length="0.34" shape="1382.80,1094.03 1382.77,1093.69"/>
    </edge>
    <edge id=":gneJ16_1" function="internal">
        <lane id=":gneJ16_1_0" index="0" disallow="tram rail_urban rail rail_electric pedestrian ship" speed="16.67" length="0.29" shape="1389.14,1093.05 1389.17,1093.32"/>
        <lane id=":gneJ16_1_1" index="1" disallow="tram rail_urban rail rail_electric pedestrian ship" speed="16.67" length="0.29" shape="1385.96,1093.37 1385.99,1093.67"/>
    </edge>
    <edge id=":gneJ26_0" function="internal">
        <lane id=":gneJ26_0_0" index="0" speed="16.67" length="24.24" shape="1392.51,1118.46 1396.74,1142.33"/>
        <lane id=":gneJ26_0_1" index="1" speed="16.67" length="24.24" shape="1389.36,1119.02 1393.59,1142.89"/>
    </edge>
    <edge id=":gneJ26_2" function="internal">
        <lane id=":gneJ26_2_0" index="0" speed="16.67" length="24.27" shape="1384.81,1120.41 1387.11,1124.29 1389.59,1129.52 1391.87,1135.81 1393.59,1142.89"/>
    </edge>
    <edge id=":gneJ26_w0" function="walkingarea">
        <lane id=":gneJ26_w0_0" index="0" allow="pedestrian" speed="1.00" length="19.04" width="3.20" shape="1392.01,1143.17 1395.16,1142.61 1395.16,1142.61 1398.31,1142.05 1394.09,1118.19 1390.94,1118.74 1390.94,1118.74 1387.79,1119.30 1386.14,1119.52 1383.48,1121.30 1391.12,1138.21 1390.34,1134.53 1389.42,1131.56 1388.14,1128.74 1386.24,1125.51"/>
    </edge>
    <edge id=":gneJ27_0" function="internal">
        <lane id=":gneJ27_0_0" index="0" disallow="tram rail_urban rail rail_electric pedestrian ship" speed="16.67" length="8.40" shape="1011.07,1169.67 1018.96,1168.32"/>
        <lane id=":gneJ27_0_1" index="1" disallow="tram rail_urban rail rail_electric pedestrian ship" speed="16.67" length="8.40" shape="1011.62,1172.82 1013.96,1171.91 1015.29,1170.56 1016.62,1169.22 1018.96,1168.32"/>
    </edge>

    <edge id="Fagundes_Varela#-1" from="321989117" to="Paulo_Alves__Fagundes_Varela" name="Rua Fagundes Varela" priority="10" type="highway.secondary" shape="1824.87,1488.91 1774.59,1488.47 1624.41,1483.10 1580.45,1468.08 1528.02,1433.02 1453.22,1381.23 1429.48,1372.88">
        <lane id="Fagundes_Varela#-1_0" index="0" disallow="tram rail_urban rail rail_electric pedestrian ship" speed="16.67" length="412.93" shape="1824.86,1490.51 1774.55,1490.07 1624.12,1484.69 1579.73,1469.53 1527.12,1434.34 1452.49,1382.67 1441.99,1378.98">
            <param key="origId" value="569567317"/>
        </lane>
        <param key="origTo" value="320591270"/>
    </edge>
    <edge id="Fagundes_Varela#1" from="Paulo_Alves__Fagundes_Varela" to="321989117" name="Rua Fagundes Varela" priority="10" type="highway.secondary" shape="1429.48,1372.88 1453.22,1381.23 1528.02,1433.02 1580.45,1468.08 1624.41,1483.10 1774.59,1488.47 1824.87,1488.91">
        <lane id="Fagundes_Varela#1_0" index="0" disallow="tram rail_urban rail rail_electric pedestrian ship" speed="16.67" length="411.87" shape="1443.06,1375.96 1453.95,1379.79 1528.92,1431.70 1581.17,1466.63 1624.70,1481.51 1774.63,1486.87 1824.88,1487.31">
            <param key="origId" value="569567317"/>
        </lane>
        <param key="origFrom" value="320591270"/>
    </edge>