<routes xmlns:xsi="http://www.w3.org/2001/XMLSchema-instance" xsi:noNamespaceSchemaLocation="http://sumo.dlr.de/xsd/routes_file.xsd">

    <route id="UFF__UFF__retorno" edges="Presidente_Pedreira#1 Presidente_Pedreira#2 Presidente_Pedreira#3 Nilo_Pecanha#1 Tiradentes#3 Tiradentes#4" color="127,255,212"/>
    <route id="UFF__icarai_meio" edges="Presidente_Pedreira#1 Presidente_Pedreira#2 Presidente_Pedreira#3 Presidente_Pedreira#4 Presidente_Pedreira#5 Presidente_Pedreira#6L Paulo_Alves#4 Paulo_Alves#5 Fagundes_Varela#1" color="cyan"/>
    <route id="UFF__praia_icarai" edges="Presidente_Pedreira#1 Presidente_Pedreira#2 Presidente_Pedreira#3 Presidente_Pedreira#4 Presidente_Pedreira#5 Presidente_Pedreira#6R Paulo_Alves#-1" color="blue"/>
    <route id="centro__praia_icarai" edges="Visconde_de_Morais#1 Visconde_de_Morais#2 Presidente_Pedreira#3 Presidente_Pedreira#4 Presidente_Pedreira#5 Presidente_Pedreira#6R Paulo_Alves#-1" color="red"/>
    <route id="icarai_meio__centro" edges="Fagundes_Varela#-1 Sao_Sebastiao#1" color="magenta"/>
    <route id="icarai_meio__icarai_praia" edges="Fagundes_Varela#-1 Tiradentes#1 Pereira_Nunes#1 Presidente_Pedreira#5 Presidente_Pedreira#6R Paulo_Alves#-1" color="250,235,215"/>
    <route id="praia_icarai__UFF" edges="Paulo_Alves#1 Paulo_Alves#2 Paulo_Alves#3 Paulo_Alves#4 Paulo_Alves#5 Tiradentes#1 Tiradentes#2 Tiradentes#3 Tiradentes#4" color="yellow"/>
    <route id="praia_icarai__centro" edges="Paulo_Alves#1 Paulo_Alves#2 Paulo_Alves#3 Paulo_Alves#4 Paulo_Alves#5 Sao_Sebastiao#1" color="green"/>

    <flow id="flow_UFF__UFF__retorno"         type="DEFAULT_VEHTYPE" begin="0.00" end="3600.00" number="150"  route="UFF__UFF__retorno"/>
    <flow id="flow_UFF__icarai_meio"          type="DEFAULT_VEHTYPE" begin="0.00" end="3600.00" number="400"  route="UFF__icarai_meio"/>
    <flow id="flow_UFF__praia_icarai"         type="DEFAULT_VEHTYPE" begin="0.00" end="3600.00" number="100"  route="UFF__praia_icarai"/>
    <flow id="flow_centro__praia_icarai"      type="DEFAULT_VEHTYPE" begin="0.00" end="3600.00" number="1800" route="centro__praia_icarai"/>
    <flow id="flow_icarai_meio__centro"       type="DEFAULT_VEHTYPE" begin="0.00" end="3600.00" number="500"  route="icarai_meio__centro"/>
    <flow id="flow_icarai_meio__icarai_praia" type="DEFAULT_VEHTYPE" begin="0.00" end="3600.00" number="200"  route="icarai_meio__icarai_praia"/>
    <flow id="flow_praia_icarai__UFF"         type="DEFAULT_VEHTYPE" begin="0.00" end="3600.00" number="1000" route="praia_icarai__UFF"/>
    <flow id="flow_praia_icarai__centro"      type="DEFAULT_VEHTYPE" begin="0.00" end="3600.00" number="1800" route="praia_icarai__centro"/>

</routes>
