<routes>
	<vType id="SUMO_DEFAULT_TYPE" accel="0.8" decel="4.5" sigma="0" length="5" minGap="2" maxSpeed="70"/>
		<route id="right" edges="51o 1i 2o 52i" />
		<route id="left"  edges="52o 2i 1o 51i" />
		<route id="down"  edges="54o 4i 3o 53i" />
		<route id="up"    edges="53o 3i 4o 54i" />

		<vehicle id="left_0"	type="SUMO_DEFAULT_TYPE" route="left"	depart="0" />
		<vehicle id="left_1"	type="SUMO_DEFAULT_TYPE" route="left"	depart="2" />
		<vehicle id="right_2"	type="SUMO_DEFAULT_TYPE" route="right"	depart="3" />
		<vehicle id="down_3"	type="SUMO_DEFAULT_TYPE" route="down"	depart="4"/>
		<vehicle id="left_4"	type="SUMO_DEFAULT_TYPE" route="left"	depart="10" />
		<vehicle id="down_5"	type="SUMO_DEFAULT_TYPE" route="down"	depart="16"/>
		<vehicle id="left_6"	type="SUMO_DEFAULT_TYPE" route="left"	depart="22" />
		<vehicle id="up_7"  	type="SUMO_DEFAULT_TYPE" route="up"		depart="23"/>
		<vehicle id="right_8"	type="SUMO_DEFAULT_TYPE" route="right"	depart="25" />
		<vehicle id="right_9"	type="SUMO_DEFAULT_TYPE" route="right"	depart="31" />
		<vehicle id="up_10"  	type="SUMO_DEFAULT_TYPE" route="up"		depart="31"/>
		<vehicle id="down_11"	type="SUMO_DEFAULT_TYPE" route="down"	depart="32"/>
		<vehicle id="left_12"	type="SUMO_DEFAULT_TYPE" route="left"	depart="49" />
		<vehicle id="down_13"	type="SUMO_DEFAULT_TYPE" route="down"	depart="51"/>
		<vehicle id="right_14"	type="SUMO_DEFAULT_TYPE" route="right"	depart="56" />
		<vehicle id="left_15"	type="SUMO_DEFAULT_TYPE" route="left"	depart="67" />
		<vehicle id="up_16"  	type="SUMO_DEFAULT_TYPE" route="up"		depart="72"/>
		<vehicle id="left_17"	type="SUMO_DEFAULT_TYPE" route="left"	depart="74" />
		<vehicle id="right_18"	type="SUMO_DEFAULT_TYPE" route="right"	depart="81" />
		<vehicle id="up_19"  	type="SUMO_DEFAULT_TYPE" route="up"		depart="85"/>
		<vehicle id="right_20"	type="SUMO_DEFAULT_TYPE" route="right"	depart="92" />
		<vehicle id="up_21"  	type="SUMO_DEFAULT_TYPE" route="up"		depart="98"/>
		<vehicle id="down_22"	type="SUMO_DEFAULT_TYPE" route="down"	depart="103"/>
		<vehicle id="down_23"	type="SUMO_DEFAULT_TYPE" route="down"	depart="106"/>
		<vehicle id="down_24"	type="SUMO_DEFAULT_TYPE" route="down"	depart="108"/>
		<vehicle id="left_25"	type="SUMO_DEFAULT_TYPE" route="left"	depart="117" />
		<vehicle id="left_26"	type="SUMO_DEFAULT_TYPE" route="left"	depart="120" />
		<vehicle id="left_27"	type="SUMO_DEFAULT_TYPE" route="left"	depart="123" />
		<vehicle id="left_28"	type="SUMO_DEFAULT_TYPE" route="left"	depart="125" />
		<vehicle id="right_29"	type="SUMO_DEFAULT_TYPE" route="right"	depart="126" />
		<vehicle id="right_30"	type="SUMO_DEFAULT_TYPE" route="right"	depart="127" />
		<vehicle id="up_31"  	type="SUMO_DEFAULT_TYPE" route="up"		depart="129"/>
		<vehicle id="right_32"	type="SUMO_DEFAULT_TYPE" route="right"	depart="132" />
		<vehicle id="down_33"	type="SUMO_DEFAULT_TYPE" route="down"	depart="135"/>
		<vehicle id="left_34"	type="SUMO_DEFAULT_TYPE" route="left"	depart="147" />
		<vehicle id="up_35"  	type="SUMO_DEFAULT_TYPE" route="up"		depart="149"/>
		<vehicle id="left_36"	type="SUMO_DEFAULT_TYPE" route="left"	depart="159" />
		<vehicle id="down_37"	type="SUMO_DEFAULT_TYPE" route="down"	depart="162"/>
		<vehicle id="up_38"  	type="SUMO_DEFAULT_TYPE" route="up"		depart="164"/>
		<vehicle id="right_39"	type="SUMO_DEFAULT_TYPE" route="right"	depart="171" />
		<vehicle id="right_40"	type="SUMO_DEFAULT_TYPE" route="right"	depart="179" />
		<vehicle id="right_41"	type="SUMO_DEFAULT_TYPE" route="right"	depart="182" />
		<vehicle id="left_42"	type="SUMO_DEFAULT_TYPE" route="left"	depart="204" />
		<vehicle id="up_43"  	type="SUMO_DEFAULT_TYPE" route="up"		depart="206"/>
		<vehicle id="down_44"	type="SUMO_DEFAULT_TYPE" route="down"	depart="212"/>
		<vehicle id="right_45"	type="SUMO_DEFAULT_TYPE" route="right"	depart="216" />
		<vehicle id="up_46"  	type="SUMO_DEFAULT_TYPE" route="up"		depart="220"/>
		<vehicle id="right_47"	type="SUMO_DEFAULT_TYPE" route="right"	depart="227" />
		<vehicle id="right_48"	type="SUMO_DEFAULT_TYPE" route="right"	depart="239" />
		<vehicle id="up_49"  	type="SUMO_DEFAULT_TYPE" route="up"		depart="241"/>
		<vehicle id="down_50"	type="SUMO_DEFAULT_TYPE" route="down"	depart="242"/>
		<vehicle id="down_51"	type="SUMO_DEFAULT_TYPE" route="down"	depart="248"/>
		<vehicle id="left_52"	type="SUMO_DEFAULT_TYPE" route="left"	depart="253" />
		<vehicle id="up_53"  	type="SUMO_DEFAULT_TYPE" route="up"		depart="256"/>
		<vehicle id="left_54"	type="SUMO_DEFAULT_TYPE" route="left"	depart="258" />
		<vehicle id="up_55"  	type="SUMO_DEFAULT_TYPE" route="up"		depart="258"/>
		<vehicle id="down_56"	type="SUMO_DEFAULT_TYPE" route="down"	depart="259"/>
		<vehicle id="left_57"	type="SUMO_DEFAULT_TYPE" route="left"	depart="262" />
		<vehicle id="down_58"	type="SUMO_DEFAULT_TYPE" route="down"	depart="263"/>
		<vehicle id="right_59"	type="SUMO_DEFAULT_TYPE" route="right"	depart="266" />
		<vehicle id="left_60"	type="SUMO_DEFAULT_TYPE" route="left"	depart="281" />
		<vehicle id="left_61"	type="SUMO_DEFAULT_TYPE" route="left"	depart="283" />
		<vehicle id="down_62"	type="SUMO_DEFAULT_TYPE" route="down"	depart="284"/>
		<vehicle id="left_63"	type="SUMO_DEFAULT_TYPE" route="left"	depart="287" />
		<vehicle id="left_64"	type="SUMO_DEFAULT_TYPE" route="left"	depart="291" />
		<vehicle id="right_65"	type="SUMO_DEFAULT_TYPE" route="right"	depart="292" />
		<vehicle id="up_66"  	type="SUMO_DEFAULT_TYPE" route="up"		depart="293"/>
		<vehicle id="right_67"	type="SUMO_DEFAULT_TYPE" route="right"	depart="296" />
		<vehicle id="left_68"	type="SUMO_DEFAULT_TYPE" route="left"	depart="296" />
		<vehicle id="left_69"	type="SUMO_DEFAULT_TYPE" route="left"	depart="298" />
		<vehicle id="right_70"	type="SUMO_DEFAULT_TYPE" route="right"	depart="310" />
		<vehicle id="right_71"	type="SUMO_DEFAULT_TYPE" route="right"	depart="311" />
		<vehicle id="left_72"	type="SUMO_DEFAULT_TYPE" route="left"	depart="315" />
		<vehicle id="right_73"	type="SUMO_DEFAULT_TYPE" route="right"	depart="320" />
		<vehicle id="up_74"  	type="SUMO_DEFAULT_TYPE" route="up"		depart="330"/>
		<vehicle id="left_75"	type="SUMO_DEFAULT_TYPE" route="left"	depart="343" />
		<vehicle id="up_76"  	type="SUMO_DEFAULT_TYPE" route="up"		depart="343"/>
		<vehicle id="down_77"	type="SUMO_DEFAULT_TYPE" route="down"	depart="344"/>
		<vehicle id="down_78"	type="SUMO_DEFAULT_TYPE" route="down"	depart="347"/>
		<vehicle id="left_79"	type="SUMO_DEFAULT_TYPE" route="left"	depart="350" />
		<vehicle id="right_80"	type="SUMO_DEFAULT_TYPE" route="right"	depart="352" />
		<vehicle id="left_81"	type="SUMO_DEFAULT_TYPE" route="left"	depart="357" />
		<vehicle id="left_82"	type="SUMO_DEFAULT_TYPE" route="left"	depart="359" />
		<vehicle id="up_83"  	type="SUMO_DEFAULT_TYPE" route="up"		depart="361"/>
		<vehicle id="up_84"  	type="SUMO_DEFAULT_TYPE" route="up"		depart="362"/>
		<vehicle id="right_85"	type="SUMO_DEFAULT_TYPE" route="right"	depart="363" />
		<vehicle id="left_86"	type="SUMO_DEFAULT_TYPE" route="left"	depart="372" />
		<vehicle id="left_87"	type="SUMO_DEFAULT_TYPE" route="left"	depart="376" />
		<vehicle id="down_88"	type="SUMO_DEFAULT_TYPE" route="down"	depart="385"/>
		<vehicle id="right_89"	type="SUMO_DEFAULT_TYPE" route="right"	depart="389" />
		<vehicle id="up_90"  	type="SUMO_DEFAULT_TYPE" route="up"		depart="395"/>
		<vehicle id="right_91"	type="SUMO_DEFAULT_TYPE" route="right"	depart="402" />
		<vehicle id="left_92"	type="SUMO_DEFAULT_TYPE" route="left"	depart="402" />
		<vehicle id="left_93"	type="SUMO_DEFAULT_TYPE" route="left"	depart="406" />
		<vehicle id="left_94"	type="SUMO_DEFAULT_TYPE" route="left"	depart="414" />
		<vehicle id="down_95"	type="SUMO_DEFAULT_TYPE" route="down"	depart="415"/>
		<vehicle id="down_96"	type="SUMO_DEFAULT_TYPE" route="down"	depart="423"/>
		<vehicle id="left_97"	type="SUMO_DEFAULT_TYPE" route="left"	depart="430" />
		<vehicle id="down_98"	type="SUMO_DEFAULT_TYPE" route="down"	depart="433"/>
		<vehicle id="up_99"  	type="SUMO_DEFAULT_TYPE" route="up"		depart="434"/>
		<vehicle id="down_100"	type="SUMO_DEFAULT_TYPE" route="down"	depart="436"/>
		<vehicle id="up_101"  	type="SUMO_DEFAULT_TYPE" route="up"		depart="450"/>
		<vehicle id="down_102"	type="SUMO_DEFAULT_TYPE" route="down"	depart="451"/>
		<vehicle id="right_103"	type="SUMO_DEFAULT_TYPE" route="right"	depart="459" />
		<vehicle id="up_104"  	type="SUMO_DEFAULT_TYPE" route="up"		depart="468"/>
		<vehicle id="left_105"	type="SUMO_DEFAULT_TYPE" route="left"	depart="469" />
		<vehicle id="right_106"	type="SUMO_DEFAULT_TYPE" route="right"	depart="477" />
		<vehicle id="right_107"	type="SUMO_DEFAULT_TYPE" route="right"	depart="481" />
		<vehicle id="right_108"	type="SUMO_DEFAULT_TYPE" route="right"	depart="483" />
		<vehicle id="up_109"  	type="SUMO_DEFAULT_TYPE" route="up"		depart="483"/>
		<vehicle id="down_110"	type="SUMO_DEFAULT_TYPE" route="down"	depart="484"/>
		<vehicle id="left_111"	type="SUMO_DEFAULT_TYPE" route="left"	depart="490" />
		<vehicle id="up_112"  	type="SUMO_DEFAULT_TYPE" route="up"		depart="490"/>
		<vehicle id="up_113"  	type="SUMO_DEFAULT_TYPE" route="up"		depart="494"/>
		<vehicle id="left_114"	type="SUMO_DEFAULT_TYPE" route="left"	depart="495" />
		<vehicle id="right_115"	type="SUMO_DEFAULT_TYPE" route="right"	depart="496" />
		<vehicle id="up_116"  	type="SUMO_DEFAULT_TYPE" route="up"		depart="497"/>
		<vehicle id="right_117"	type="SUMO_DEFAULT_TYPE" route="right"	depart="501" />
		<vehicle id="up_118"  	type="SUMO_DEFAULT_TYPE" route="up"		depart="512"/>
		<vehicle id="up_119"  	type="SUMO_DEFAULT_TYPE" route="up"		depart="525"/>
		<vehicle id="down_120"	type="SUMO_DEFAULT_TYPE" route="down"	depart="525"/>
		<vehicle id="right_121"	type="SUMO_DEFAULT_TYPE" route="right"	depart="528" />
		<vehicle id="right_122"	type="SUMO_DEFAULT_TYPE" route="right"	depart="530" />
		<vehicle id="up_123"  	type="SUMO_DEFAULT_TYPE" route="up"		depart="530"/>
		<vehicle id="up_124"  	type="SUMO_DEFAULT_TYPE" route="up"		depart="531"/>
		<vehicle id="right_125"	type="SUMO_DEFAULT_TYPE" route="right"	depart="538" />
		<vehicle id="left_126"	type="SUMO_DEFAULT_TYPE" route="left"	depart="538" />
		<vehicle id="up_127"  	type="SUMO_DEFAULT_TYPE" route="up"		depart="540"/>
		<vehicle id="down_128"	type="SUMO_DEFAULT_TYPE" route="down"	depart="541"/>
		<vehicle id="right_129"	type="SUMO_DEFAULT_TYPE" route="right"	depart="543" />
		<vehicle id="left_130"	type="SUMO_DEFAULT_TYPE" route="left"	depart="548" />
		<vehicle id="left_131"	type="SUMO_DEFAULT_TYPE" route="left"	depart="550" />
		<vehicle id="left_132"	type="SUMO_DEFAULT_TYPE" route="left"	depart="555" />
		<vehicle id="up_133"  	type="SUMO_DEFAULT_TYPE" route="up"		depart="557"/>
		<vehicle id="right_134"	type="SUMO_DEFAULT_TYPE" route="right"	depart="562" />
		<vehicle id="down_135"	type="SUMO_DEFAULT_TYPE" route="down"	depart="580"/>
		<vehicle id="up_136"  	type="SUMO_DEFAULT_TYPE" route="up"		depart="582"/>
		<vehicle id="up_137"  	type="SUMO_DEFAULT_TYPE" route="up"		depart="585"/>
		<vehicle id="down_138"	type="SUMO_DEFAULT_TYPE" route="down"	depart="593"/>
		<vehicle id="right_139"	type="SUMO_DEFAULT_TYPE" route="right"	depart="596" />
		<vehicle id="right_140"	type="SUMO_DEFAULT_TYPE" route="right"	depart="606" />
		<vehicle id="up_141"  	type="SUMO_DEFAULT_TYPE" route="up"		depart="606"/>
		<vehicle id="left_142"	type="SUMO_DEFAULT_TYPE" route="left"	depart="609" />
		<vehicle id="left_143"	type="SUMO_DEFAULT_TYPE" route="left"	depart="613" />
		<vehicle id="up_144"  	type="SUMO_DEFAULT_TYPE" route="up"		depart="619"/>
		<vehicle id="right_145"	type="SUMO_DEFAULT_TYPE" route="right"	depart="629" />
		<vehicle id="down_146"	type="SUMO_DEFAULT_TYPE" route="down"	depart="630"/>
		<vehicle id="right_147"	type="SUMO_DEFAULT_TYPE" route="right"	depart="634" />
		<vehicle id="down_148"	type="SUMO_DEFAULT_TYPE" route="down"	depart="635"/>
		<vehicle id="down_149"	type="SUMO_DEFAULT_TYPE" route="down"	depart="640"/>
		<vehicle id="right_150"	type="SUMO_DEFAULT_TYPE" route="right"	depart="642" />
		<vehicle id="down_151"	type="SUMO_DEFAULT_TYPE" route="down"	depart="646"/>
		<vehicle id="up_152"  	type="SUMO_DEFAULT_TYPE" route="up"		depart="654"/>
		<vehicle id="left_153"	type="SUMO_DEFAULT_TYPE" route="left"	depart="659" />
		<vehicle id="right_154"	type="SUMO_DEFAULT_TYPE" route="right"	depart="660" />
		<vehicle id="left_155"	type="SUMO_DEFAULT_TYPE" route="left"	depart="660" />
		<vehicle id="left_156"	type="SUMO_DEFAULT_TYPE" route="left"	depart="665" />
		<vehicle id="left_157"	type="SUMO_DEFAULT_TYPE" route="left"	depart="666" />
		<vehicle id="down_158"	type="SUMO_DEFAULT_TYPE" route="down"	depart="671"/>
		<vehicle id="up_159"  	type="SUMO_DEFAULT_TYPE" route="up"		depart="672"/>
		<vehicle id="left_160"	type="SUMO_DEFAULT_TYPE" route="left"	depart="676" />
		<vehicle id="down_161"	type="SUMO_DEFAULT_TYPE" route="down"	depart="683"/>
		<vehicle id="right_162"	type="SUMO_DEFAULT_TYPE" route="right"	depart="687" />
		<vehicle id="down_163"	type="SUMO_DEFAULT_TYPE" route="down"	depart="688"/>
		<vehicle id="down_164"	type="SUMO_DEFAULT_TYPE" route="down"	depart="690"/>
		<vehicle id="down_165"	type="SUMO_DEFAULT_TYPE" route="down"	depart="701"/>
		<vehicle id="left_166"	type="SUMO_DEFAULT_TYPE" route="left"	depart="704" />
		<vehicle id="left_167"	type="SUMO_DEFAULT_TYPE" route="left"	depart="706" />
		<vehicle id="right_168"	type="SUMO_DEFAULT_TYPE" route="right"	depart="709" />
		<vehicle id="left_169"	type="SUMO_DEFAULT_TYPE" route="left"	depart="709" />
		<vehicle id="right_170"	type="SUMO_DEFAULT_TYPE" route="right"	depart="711" />
		<vehicle id="up_171"  	type="SUMO_DEFAULT_TYPE" route="up"		depart="712"/>
		<vehicle id="left_172"	type="SUMO_DEFAULT_TYPE" route="left"	depart="714" />
		<vehicle id="down_173"	type="SUMO_DEFAULT_TYPE" route="down"	depart="715"/>
		<vehicle id="left_174"	type="SUMO_DEFAULT_TYPE" route="left"	depart="721" />
		<vehicle id="right_175"	type="SUMO_DEFAULT_TYPE" route="right"	depart="724" />
		<vehicle id="left_176"	type="SUMO_DEFAULT_TYPE" route="left"	depart="727" />
		<vehicle id="right_177"	type="SUMO_DEFAULT_TYPE" route="right"	depart="731" />
		<vehicle id="right_178"	type="SUMO_DEFAULT_TYPE" route="right"	depart="733" />
		<vehicle id="down_179"	type="SUMO_DEFAULT_TYPE" route="down"	depart="741"/>
		<vehicle id="up_180"  	type="SUMO_DEFAULT_TYPE" route="up"		depart="747"/>
		<vehicle id="down_181"	type="SUMO_DEFAULT_TYPE" route="down"	depart="754"/>
		<vehicle id="left_182"	type="SUMO_DEFAULT_TYPE" route="left"	depart="758" />
		<vehicle id="down_183"	type="SUMO_DEFAULT_TYPE" route="down"	depart="760"/>
		<vehicle id="up_184"  	type="SUMO_DEFAULT_TYPE" route="up"		depart="765"/>
		<vehicle id="left_185"	type="SUMO_DEFAULT_TYPE" route="left"	depart="782" />
		<vehicle id="up_186"  	type="SUMO_DEFAULT_TYPE" route="up"		depart="783"/>
		<vehicle id="left_187"	type="SUMO_DEFAULT_TYPE" route="left"	depart="785" />
		<vehicle id="up_188"  	type="SUMO_DEFAULT_TYPE" route="up"		depart="792"/>
		<vehicle id="down_189"	type="SUMO_DEFAULT_TYPE" route="down"	depart="795"/>
		<vehicle id="right_190"	type="SUMO_DEFAULT_TYPE" route="right"	depart="801" />
		<vehicle id="down_191"	type="SUMO_DEFAULT_TYPE" route="down"	depart="801"/>
		<vehicle id="down_192"	type="SUMO_DEFAULT_TYPE" route="down"	depart="802"/>
		<vehicle id="up_193"  	type="SUMO_DEFAULT_TYPE" route="up"		depart="808"/>
		<vehicle id="right_194"	type="SUMO_DEFAULT_TYPE" route="right"	depart="814" />
		<vehicle id="up_195"  	type="SUMO_DEFAULT_TYPE" route="up"		depart="824"/>
		<vehicle id="left_196"	type="SUMO_DEFAULT_TYPE" route="left"	depart="828" />
		<vehicle id="up_197"  	type="SUMO_DEFAULT_TYPE" route="up"		depart="831"/>
		<vehicle id="left_198"	type="SUMO_DEFAULT_TYPE" route="left"	depart="832" />
		<vehicle id="left_199"	type="SUMO_DEFAULT_TYPE" route="left"	depart="841" />
		<vehicle id="left_200"	type="SUMO_DEFAULT_TYPE" route="left"	depart="842" />
		<vehicle id="left_201"	type="SUMO_DEFAULT_TYPE" route="left"	depart="843" />
		<vehicle id="left_202"	type="SUMO_DEFAULT_TYPE" route="left"	depart="850" />
		<vehicle id="up_203"  	type="SUMO_DEFAULT_TYPE" route="up"		depart="851"/>
		<vehicle id="down_204"	type="SUMO_DEFAULT_TYPE" route="down"	depart="855"/>
		<vehicle id="up_205"  	type="SUMO_DEFAULT_TYPE" route="up"		depart="857"/>
		<vehicle id="down_206"	type="SUMO_DEFAULT_TYPE" route="down"	depart="862"/>
		<vehicle id="left_207"	type="SUMO_DEFAULT_TYPE" route="left"	depart="865" />
		<vehicle id="left_208"	type="SUMO_DEFAULT_TYPE" route="left"	depart="867" />
		<vehicle id="down_209"	type="SUMO_DEFAULT_TYPE" route="down"	depart="872"/>
		<vehicle id="left_210"	type="SUMO_DEFAULT_TYPE" route="left"	depart="875" />
		<vehicle id="left_211"	type="SUMO_DEFAULT_TYPE" route="left"	depart="879" />
		<vehicle id="down_212"	type="SUMO_DEFAULT_TYPE" route="down"	depart="881"/>
		<vehicle id="right_213"	type="SUMO_DEFAULT_TYPE" route="right"	depart="886" />
		<vehicle id="left_214"	type="SUMO_DEFAULT_TYPE" route="left"	depart="892" />
		<vehicle id="right_215"	type="SUMO_DEFAULT_TYPE" route="right"	depart="906" />
		<vehicle id="right_216"	type="SUMO_DEFAULT_TYPE" route="right"	depart="909" />
		<vehicle id="down_217"	type="SUMO_DEFAULT_TYPE" route="down"	depart="913"/>
		<vehicle id="up_218"  	type="SUMO_DEFAULT_TYPE" route="up"		depart="921"/>
		<vehicle id="right_219"	type="SUMO_DEFAULT_TYPE" route="right"	depart="928" />
		<vehicle id="down_220"	type="SUMO_DEFAULT_TYPE" route="down"	depart="932"/>
		<vehicle id="down_221"	type="SUMO_DEFAULT_TYPE" route="down"	depart="934"/>
		<vehicle id="right_222"	type="SUMO_DEFAULT_TYPE" route="right"	depart="935" />
		<vehicle id="left_223"	type="SUMO_DEFAULT_TYPE" route="left"	depart="939" />
		<vehicle id="up_224"  	type="SUMO_DEFAULT_TYPE" route="up"		depart="941"/>
		<vehicle id="left_225"	type="SUMO_DEFAULT_TYPE" route="left"	depart="950" />
		<vehicle id="right_226"	type="SUMO_DEFAULT_TYPE" route="right"	depart="961" />
		<vehicle id="down_227"	type="SUMO_DEFAULT_TYPE" route="down"	depart="966"/>
		<vehicle id="left_228"	type="SUMO_DEFAULT_TYPE" route="left"	depart="967" />
		<vehicle id="right_229"	type="SUMO_DEFAULT_TYPE" route="right"	depart="976" />
		<vehicle id="up_230"  	type="SUMO_DEFAULT_TYPE" route="up"		depart="976"/>
		<vehicle id="right_231"	type="SUMO_DEFAULT_TYPE" route="right"	depart="978" />
		<vehicle id="left_232"	type="SUMO_DEFAULT_TYPE" route="left"	depart="988" />
		<vehicle id="up_233"  	type="SUMO_DEFAULT_TYPE" route="up"		depart="988"/>
		<vehicle id="up_234"  	type="SUMO_DEFAULT_TYPE" route="up"		depart="989"/>
		<vehicle id="right_235"	type="SUMO_DEFAULT_TYPE" route="right"	depart="990" />
		<vehicle id="up_236"  	type="SUMO_DEFAULT_TYPE" route="up"		depart="991"/>
		<vehicle id="left_237"	type="SUMO_DEFAULT_TYPE" route="left"	depart="999" />
		<vehicle id="up_238"  	type="SUMO_DEFAULT_TYPE" route="up"		depart="1002"/>
		<vehicle id="left_239"	type="SUMO_DEFAULT_TYPE" route="left"	depart="1008" />
		<vehicle id="down_240"	type="SUMO_DEFAULT_TYPE" route="down"	depart="1017"/>
		<vehicle id="right_241"	type="SUMO_DEFAULT_TYPE" route="right"	depart="1019" />
		<vehicle id="down_242"	type="SUMO_DEFAULT_TYPE" route="down"	depart="1019"/>
		<vehicle id="up_243"  	type="SUMO_DEFAULT_TYPE" route="up"		depart="1023"/>
		<vehicle id="down_244"	type="SUMO_DEFAULT_TYPE" route="down"	depart="1024"/>
		<vehicle id="left_245"	type="SUMO_DEFAULT_TYPE" route="left"	depart="1025" />
		<vehicle id="up_246"  	type="SUMO_DEFAULT_TYPE" route="up"		depart="1035"/>
		<vehicle id="right_247"	type="SUMO_DEFAULT_TYPE" route="right"	depart="1038" />
		<vehicle id="down_248"	type="SUMO_DEFAULT_TYPE" route="down"	depart="1045"/>
		<vehicle id="right_249"	type="SUMO_DEFAULT_TYPE" route="right"	depart="1049" />
		<vehicle id="right_250"	type="SUMO_DEFAULT_TYPE" route="right"	depart="1052" />
		<vehicle id="up_251"  	type="SUMO_DEFAULT_TYPE" route="up"		depart="1062"/>
		<vehicle id="right_252"	type="SUMO_DEFAULT_TYPE" route="right"	depart="1065" />
		<vehicle id="down_253"	type="SUMO_DEFAULT_TYPE" route="down"	depart="1074"/>
		<vehicle id="down_254"	type="SUMO_DEFAULT_TYPE" route="down"	depart="1076"/>
		<vehicle id="up_255"  	type="SUMO_DEFAULT_TYPE" route="up"		depart="1077"/>
		<vehicle id="right_256"	type="SUMO_DEFAULT_TYPE" route="right"	depart="1081" />
		<vehicle id="up_257"  	type="SUMO_DEFAULT_TYPE" route="up"		depart="1087"/>
		<vehicle id="down_258"	type="SUMO_DEFAULT_TYPE" route="down"	depart="1088"/>
		<vehicle id="down_259"	type="SUMO_DEFAULT_TYPE" route="down"	depart="1089"/>
		<vehicle id="down_260"	type="SUMO_DEFAULT_TYPE" route="down"	depart="1090"/>
		<vehicle id="down_261"	type="SUMO_DEFAULT_TYPE" route="down"	depart="1097"/>
		<vehicle id="right_262"	type="SUMO_DEFAULT_TYPE" route="right"	depart="1098" />
		<vehicle id="down_263"	type="SUMO_DEFAULT_TYPE" route="down"	depart="1102"/>
		<vehicle id="left_264"	type="SUMO_DEFAULT_TYPE" route="left"	depart="1106" />
		<vehicle id="down_265"	type="SUMO_DEFAULT_TYPE" route="down"	depart="1108"/>
		<vehicle id="down_266"	type="SUMO_DEFAULT_TYPE" route="down"	depart="1112"/>
		<vehicle id="right_267"	type="SUMO_DEFAULT_TYPE" route="right"	depart="1113" />
		<vehicle id="right_268"	type="SUMO_DEFAULT_TYPE" route="right"	depart="1116" />
		<vehicle id="left_269"	type="SUMO_DEFAULT_TYPE" route="left"	depart="1124" />
		<vehicle id="left_270"	type="SUMO_DEFAULT_TYPE" route="left"	depart="1125" />
		<vehicle id="down_271"	type="SUMO_DEFAULT_TYPE" route="down"	depart="1134"/>
		<vehicle id="down_272"	type="SUMO_DEFAULT_TYPE" route="down"	depart="1136"/>
		<vehicle id="left_273"	type="SUMO_DEFAULT_TYPE" route="left"	depart="1150" />
		<vehicle id="left_274"	type="SUMO_DEFAULT_TYPE" route="left"	depart="1152" />
		<vehicle id="right_275"	type="SUMO_DEFAULT_TYPE" route="right"	depart="1158" />
		<vehicle id="up_276"  	type="SUMO_DEFAULT_TYPE" route="up"		depart="1160"/>
		<vehicle id="up_277"  	type="SUMO_DEFAULT_TYPE" route="up"		depart="1161"/>
		<vehicle id="down_278"	type="SUMO_DEFAULT_TYPE" route="down"	depart="1162"/>
		<vehicle id="down_279"	type="SUMO_DEFAULT_TYPE" route="down"	depart="1165"/>
		<vehicle id="down_280"	type="SUMO_DEFAULT_TYPE" route="down"	depart="1171"/>
		<vehicle id="up_281"  	type="SUMO_DEFAULT_TYPE" route="up"		depart="1173"/>
		<vehicle id="left_282"	type="SUMO_DEFAULT_TYPE" route="left"	depart="1175" />
		<vehicle id="up_283"  	type="SUMO_DEFAULT_TYPE" route="up"		depart="1176"/>
		<vehicle id="up_284"  	type="SUMO_DEFAULT_TYPE" route="up"		depart="1177"/>
		<vehicle id="right_285"	type="SUMO_DEFAULT_TYPE" route="right"	depart="1180" />
		<vehicle id="down_286"	type="SUMO_DEFAULT_TYPE" route="down"	depart="1180"/>
		<vehicle id="right_287"	type="SUMO_DEFAULT_TYPE" route="right"	depart="1182" />
		<vehicle id="up_288"  	type="SUMO_DEFAULT_TYPE" route="up"		depart="1182"/>
		<vehicle id="right_289"	type="SUMO_DEFAULT_TYPE" route="right"	depart="1184" />
		<vehicle id="up_290"  	type="SUMO_DEFAULT_TYPE" route="up"		depart="1187"/>
		<vehicle id="down_291"	type="SUMO_DEFAULT_TYPE" route="down"	depart="1191"/>
		<vehicle id="right_292"	type="SUMO_DEFAULT_TYPE" route="right"	depart="1209" />
		<vehicle id="up_293"  	type="SUMO_DEFAULT_TYPE" route="up"		depart="1209"/>
		<vehicle id="right_294"	type="SUMO_DEFAULT_TYPE" route="right"	depart="1211" />
		<vehicle id="left_295"	type="SUMO_DEFAULT_TYPE" route="left"	depart="1213" />
		<vehicle id="up_296"  	type="SUMO_DEFAULT_TYPE" route="up"		depart="1216"/>
		<vehicle id="up_297"  	type="SUMO_DEFAULT_TYPE" route="up"		depart="1218"/>
		<vehicle id="up_298"  	type="SUMO_DEFAULT_TYPE" route="up"		depart="1220"/>
		<vehicle id="left_299"	type="SUMO_DEFAULT_TYPE" route="left"	depart="1234" />
		<vehicle id="up_300"  	type="SUMO_DEFAULT_TYPE" route="up"		depart="1237"/>
		<vehicle id="left_301"	type="SUMO_DEFAULT_TYPE" route="left"	depart="1238" />
		<vehicle id="down_302"	type="SUMO_DEFAULT_TYPE" route="down"	depart="1239"/>
		<vehicle id="left_303"	type="SUMO_DEFAULT_TYPE" route="left"	depart="1252" />
		<vehicle id="up_304"  	type="SUMO_DEFAULT_TYPE" route="up"		depart="1252"/>
		<vehicle id="right_305"	type="SUMO_DEFAULT_TYPE" route="right"	depart="1255" />
		<vehicle id="down_306"	type="SUMO_DEFAULT_TYPE" route="down"	depart="1256"/>
		<vehicle id="right_307"	type="SUMO_DEFAULT_TYPE" route="right"	depart="1258" />
		<vehicle id="right_308"	type="SUMO_DEFAULT_TYPE" route="right"	depart="1265" />
		<vehicle id="down_309"	type="SUMO_DEFAULT_TYPE" route="down"	depart="1267"/>
		<vehicle id="right_310"	type="SUMO_DEFAULT_TYPE" route="right"	depart="1271" />
		<vehicle id="up_311"  	type="SUMO_DEFAULT_TYPE" route="up"		depart="1275"/>
		<vehicle id="right_312"	type="SUMO_DEFAULT_TYPE" route="right"	depart="1277" />
		<vehicle id="down_313"	type="SUMO_DEFAULT_TYPE" route="down"	depart="1280"/>
		<vehicle id="left_314"	type="SUMO_DEFAULT_TYPE" route="left"	depart="1285" />
		<vehicle id="right_315"	type="SUMO_DEFAULT_TYPE" route="right"	depart="1294" />
		<vehicle id="right_316"	type="SUMO_DEFAULT_TYPE" route="right"	depart="1307" />
		<vehicle id="left_317"	type="SUMO_DEFAULT_TYPE" route="left"	depart="1311" />
		<vehicle id="right_318"	type="SUMO_DEFAULT_TYPE" route="right"	depart="1313" />
		<vehicle id="right_319"	type="SUMO_DEFAULT_TYPE" route="right"	depart="1319" />
		<vehicle id="right_320"	type="SUMO_DEFAULT_TYPE" route="right"	depart="1331" />
		<vehicle id="down_321"	type="SUMO_DEFAULT_TYPE" route="down"	depart="1333"/>
		<vehicle id="right_322"	type="SUMO_DEFAULT_TYPE" route="right"	depart="1335" />
		<vehicle id="down_323"	type="SUMO_DEFAULT_TYPE" route="down"	depart="1335"/>
		<vehicle id="down_324"	type="SUMO_DEFAULT_TYPE" route="down"	depart="1338"/>
		<vehicle id="down_325"	type="SUMO_DEFAULT_TYPE" route="down"	depart="1348"/>
		<vehicle id="left_326"	type="SUMO_DEFAULT_TYPE" route="left"	depart="1350" />
		<vehicle id="right_327"	type="SUMO_DEFAULT_TYPE" route="right"	depart="1356" />
		<vehicle id="down_328"	type="SUMO_DEFAULT_TYPE" route="down"	depart="1357"/>
		<vehicle id="down_329"	type="SUMO_DEFAULT_TYPE" route="down"	depart="1365"/>
		<vehicle id="right_330"	type="SUMO_DEFAULT_TYPE" route="right"	depart="1375" />
		<vehicle id="down_331"	type="SUMO_DEFAULT_TYPE" route="down"	depart="1379"/>
		<vehicle id="up_332"  	type="SUMO_DEFAULT_TYPE" route="up"		depart="1383"/>
		<vehicle id="left_333"	type="SUMO_DEFAULT_TYPE" route="left"	depart="1385" />
		<vehicle id="up_334"  	type="SUMO_DEFAULT_TYPE" route="up"		depart="1385"/>
		<vehicle id="right_335"	type="SUMO_DEFAULT_TYPE" route="right"	depart="1386" />
		<vehicle id="up_336"  	type="SUMO_DEFAULT_TYPE" route="up"		depart="1388"/>
		<vehicle id="down_337"	type="SUMO_DEFAULT_TYPE" route="down"	depart="1389"/>
		<vehicle id="down_338"	type="SUMO_DEFAULT_TYPE" route="down"	depart="1390"/>
		<vehicle id="down_339"	type="SUMO_DEFAULT_TYPE" route="down"	depart="1398"/>
		<vehicle id="right_340"	type="SUMO_DEFAULT_TYPE" route="right"	depart="1400" />
		<vehicle id="up_341"  	type="SUMO_DEFAULT_TYPE" route="up"		depart="1400"/>
		<vehicle id="left_342"	type="SUMO_DEFAULT_TYPE" route="left"	depart="1404" />
		<vehicle id="right_343"	type="SUMO_DEFAULT_TYPE" route="right"	depart="1406" />
		<vehicle id="down_344"	type="SUMO_DEFAULT_TYPE" route="down"	depart="1410"/>
		<vehicle id="up_345"  	type="SUMO_DEFAULT_TYPE" route="up"		depart="1412"/>
		<vehicle id="left_346"	type="SUMO_DEFAULT_TYPE" route="left"	depart="1421" />
		<vehicle id="down_347"	type="SUMO_DEFAULT_TYPE" route="down"	depart="1428"/>
		<vehicle id="left_348"	type="SUMO_DEFAULT_TYPE" route="left"	depart="1429" />
		<vehicle id="right_349"	type="SUMO_DEFAULT_TYPE" route="right"	depart="1430" />
		<vehicle id="right_350"	type="SUMO_DEFAULT_TYPE" route="right"	depart="1432" />
		<vehicle id="right_351"	type="SUMO_DEFAULT_TYPE" route="right"	depart="1435" />
		<vehicle id="left_352"	type="SUMO_DEFAULT_TYPE" route="left"	depart="1438" />
		<vehicle id="down_353"	type="SUMO_DEFAULT_TYPE" route="down"	depart="1440"/>
		<vehicle id="up_354"  	type="SUMO_DEFAULT_TYPE" route="up"		depart="1447"/>
		<vehicle id="right_355"	type="SUMO_DEFAULT_TYPE" route="right"	depart="1451" />
		<vehicle id="up_356"  	type="SUMO_DEFAULT_TYPE" route="up"		depart="1456"/>
		<vehicle id="down_357"	type="SUMO_DEFAULT_TYPE" route="down"	depart="1461"/>
		<vehicle id="right_358"	type="SUMO_DEFAULT_TYPE" route="right"	depart="1465" />
		<vehicle id="up_359"  	type="SUMO_DEFAULT_TYPE" route="up"		depart="1466"/>
		<vehicle id="down_360"	type="SUMO_DEFAULT_TYPE" route="down"	depart="1469"/>
		<vehicle id="down_361"	type="SUMO_DEFAULT_TYPE" route="down"	depart="1475"/>
		<vehicle id="left_362"	type="SUMO_DEFAULT_TYPE" route="left"	depart="1477" />
		<vehicle id="up_363"  	type="SUMO_DEFAULT_TYPE" route="up"		depart="1486"/>
		<vehicle id="right_364"	type="SUMO_DEFAULT_TYPE" route="right"	depart="1490" />
		<vehicle id="up_365"  	type="SUMO_DEFAULT_TYPE" route="up"		depart="1491"/>
		<vehicle id="down_366"	type="SUMO_DEFAULT_TYPE" route="down"	depart="1491"/>
		<vehicle id="up_367"  	type="SUMO_DEFAULT_TYPE" route="up"		depart="1498"/>
		<vehicle id="left_368"	type="SUMO_DEFAULT_TYPE" route="left"	depart="1505" />
		<vehicle id="right_369"	type="SUMO_DEFAULT_TYPE" route="right"	depart="1513" />
		<vehicle id="up_370"  	type="SUMO_DEFAULT_TYPE" route="up"		depart="1516"/>
		<vehicle id="up_371"  	type="SUMO_DEFAULT_TYPE" route="up"		depart="1517"/>
		<vehicle id="left_372"	type="SUMO_DEFAULT_TYPE" route="left"	depart="1518" />
		<vehicle id="up_373"  	type="SUMO_DEFAULT_TYPE" route="up"		depart="1523"/>
		<vehicle id="up_374"  	type="SUMO_DEFAULT_TYPE" route="up"		depart="1530"/>
		<vehicle id="down_375"	type="SUMO_DEFAULT_TYPE" route="down"	depart="1537"/>
		<vehicle id="up_376"  	type="SUMO_DEFAULT_TYPE" route="up"		depart="1544"/>